# generated using pymatgen
data_Ta2CrO6
_symmetry_space_group_name_H-M   'P 1'
_cell_length_a   4.81810880
_cell_length_b   4.83008100
_cell_length_c   10.44742308
_cell_angle_alpha   90.00000000
_cell_angle_beta   116.04868714
_cell_angle_gamma   90.00000000
_symmetry_Int_Tables_number   1
_chemical_formula_structural   Ta2CrO6
_chemical_formula_sum   'Ta4 Cr2 O12'
_cell_volume   218.43397939
_cell_formula_units_Z   2
loop_
 _symmetry_equiv_pos_site_id
 _symmetry_equiv_pos_as_xyz
  1  'x, y, z'
loop_
 _atom_type_symbol
 _atom_type_oxidation_number
  Ta5+  5.0
  Cr2+  2.0
  O2-  -2.0
loop_
 _atom_site_type_symbol
 _atom_site_label
 _atom_site_symmetry_multiplicity
 _atom_site_fract_x
 _atom_site_fract_y
 _atom_site_fract_z
 _atom_site_occupancy
  Ta5+  Ta0  1  0.33022300  0.48764150  0.83202500  1
  Ta5+  Ta1  1  0.66977700  0.98764150  0.66797500  1
  Ta5+  Ta2  1  0.66977700  0.51235850  0.16797500  1
  Ta5+  Ta3  1  0.33022300  0.01235850  0.33202500  1
  Cr2+  Cr4  1  0.00000000  0.00000000  0.00000000  1
  Cr2+  Cr5  1  0.00000000  0.50000000  0.50000000  1
  O2-  O6  1  0.60121950  0.72719000  0.31164000  1
  O2-  O7  1  0.60121950  0.77281000  0.81164000  1
  O2-  O8  1  0.39878050  0.27281000  0.68836000  1
  O2-  O9  1  0.39878050  0.22719000  0.18836000  1
  O2-  O10  1  0.68707650  0.31391400  0.00068500  1
  O2-  O11  1  0.31292350  0.81391400  0.49931500  1
  O2-  O12  1  0.68707650  0.18608600  0.50068500  1
  O2-  O13  1  0.31292350  0.68608600  0.99931500  1
  O2-  O14  1  0.97384600  0.81106400  0.17649100  1
  O2-  O15  1  0.02615400  0.18893600  0.82350900  1
  O2-  O16  1  0.02615400  0.31106400  0.32350900  1
  O2-  O17  1  0.97384600  0.68893600  0.67649100  1
